MODEL 1
REMARK VINA RESULT:      -8.9      0.000      0.000
REMARK  11 active torsions:
REMARK  status: ('A' for Active; 'I' for Inactive)
REMARK    1  A    between atoms: O1_1  and  C6_19 
REMARK    2  A    between atoms: O4_4  and  C13_26 
REMARK    3  A    between atoms: N1_7  and  C1_14 
REMARK       I    between atoms: N1_7  and  C4_17 
REMARK    4  A    between atoms: N2_8  and  C7_20 
REMARK    5  A    between atoms: N2_8  and  C8_21 
REMARK       I    between atoms: N7_13  and  C19_32 
REMARK    6  A    between atoms: C1_14  and  C2_15 
REMARK    7  A    between atoms: C1_14  and  C6_19 
REMARK    8  A    between atoms: C2_15  and  C3_16 
REMARK    9  A    between atoms: C3_16  and  C13_26 
REMARK   10  A    between atoms: C4_17  and  C5_18 
REMARK   11  A    between atoms: C8_21  and  C14_27 
ROOT
ATOM      1  C5  UNK     1      18.509  61.309  24.024  1.00  0.00     0.032 A 
ATOM      2  C7  UNK     1      19.265  58.751  23.208  1.00  0.00     0.028 A 
ATOM      3  C9  UNK     1      19.688  60.743  24.507  1.00  0.00     0.019 A 
ATOM      4  C10 UNK     1      17.707  60.597  23.133  1.00  0.00     0.019 A 
ATOM      5  C11 UNK     1      20.066  59.464  24.099  1.00  0.00     0.030 A 
ATOM      6  C12 UNK     1      18.085  59.318  22.725  1.00  0.00     0.030 A 
ENDROOT
BRANCH   2   7
ATOM      7  N2  UNK     1      19.646  57.458  22.796  1.00  0.00    -0.384 N 
ATOM      8  H11 UNK     1      19.925  57.347  21.826  1.00  0.00     0.160 HD
BRANCH   7   9
ATOM      9  C8  UNK     1      19.658  56.332  23.677  1.00  0.00     0.180 C 
BRANCH   9  10
ATOM     10  C14 UNK     1      18.259  55.835  23.916  1.00  0.00     0.070 A 
ATOM     11  N3  UNK     1      17.743  55.994  25.149  1.00  0.00    -0.241 NA
ATOM     12  C15 UNK     1      16.487  55.533  25.312  1.00  0.00     0.174 A 
ATOM     13  C17 UNK     1      15.757  54.935  24.303  1.00  0.00     0.202 A 
ATOM     14  C18 UNK     1      15.884  55.684  26.640  1.00  0.00     0.292 A 
ATOM     15  N4  UNK     1      16.288  54.782  23.072  1.00  0.00    -0.237 NA
ATOM     16  N6  UNK     1      14.449  54.458  24.489  1.00  0.00    -0.043 NA
ATOM     17  C16 UNK     1      17.545  55.241  22.897  1.00  0.00     0.147 A 
ATOM     18  C19 UNK     1      13.909  54.591  25.670  1.00  0.00     0.703 A 
ATOM     19  N5  UNK     1      14.594  55.186  26.727  1.00  0.00    -0.152 N 
ATOM     20  N7  UNK     1      12.640  54.159  25.952  1.00  0.00    -0.233 N 
ATOM     21  H16 UNK     1      14.117  55.259  27.621  1.00  0.00     0.187 HD
ATOM     22  H18 UNK     1      12.067  53.713  25.243  1.00  0.00     0.174 HD
ATOM     23  H19 UNK     1      12.236  54.270  26.875  1.00  0.00     0.174 HD
ATOM     24  O6  UNK     1      16.500  56.209  27.558  1.00  0.00    -0.265 OA
ENDBRANCH   9  10
ENDBRANCH   7   9
ENDBRANCH   2   7
BRANCH   1  25
ATOM     25  C4  UNK     1      18.107  62.672  24.458  1.00  0.00     0.252 C 
ATOM     26  O2  UNK     1      16.913  62.935  24.584  1.00  0.00    -0.268 OA
ATOM     27  N1  UNK     1      19.143  63.559  24.717  1.00  0.00    -0.343 N 
ATOM     28  H6  UNK     1      20.108  63.247  24.670  1.00  0.00     0.163 HD
BRANCH  27  29
ATOM     29  C1  UNK     1      18.915  64.908  25.169  1.00  0.00     0.183 C 
BRANCH  29  30
ATOM     30  C2  UNK     1      18.818  65.012  26.696  1.00  0.00     0.046 C 
BRANCH  30  31
ATOM     31  C3  UNK     1      17.662  65.863  27.236  1.00  0.00     0.112 C 
BRANCH  31  32
ATOM     32  C13 UNK     1      16.296  65.253  27.004  1.00  0.00     0.139 C 
ATOM     33  O5  UNK     1      15.298  65.862  26.646  1.00  0.00    -0.650 OA
BRANCH  32  34
ATOM     34  O4  UNK     1      16.288  63.923  27.284  1.00  0.00    -0.776 OA
ATOM     35  H17 UNK     1      15.746  63.418  26.642  1.00  0.00     0.167 HD
ENDBRANCH  32  34
ENDBRANCH  31  32
ENDBRANCH  30  31
ENDBRANCH  29  30
BRANCH  29  36
ATOM     36  C6  UNK     1      19.992  65.784  24.563  1.00  0.00     0.163 C 
ATOM     37  O3  UNK     1      19.848  66.501  23.581  1.00  0.00    -0.648 OA
BRANCH  36  38
ATOM     38  O1  UNK     1      21.154  65.717  25.262  1.00  0.00    -0.775 OA
ATOM     39  H15 UNK     1      21.089  66.180  26.124  1.00  0.00     0.167 HD
ENDBRANCH  36  38
ENDBRANCH  29  36
ENDBRANCH  27  29
ENDBRANCH   1  25
TORSDOF 11
ENDMDL
MODEL 2
REMARK VINA RESULT:      -8.6      0.851      2.546
REMARK  11 active torsions:
REMARK  status: ('A' for Active; 'I' for Inactive)
REMARK    1  A    between atoms: O1_1  and  C6_19 
REMARK    2  A    between atoms: O4_4  and  C13_26 
REMARK    3  A    between atoms: N1_7  and  C1_14 
REMARK       I    between atoms: N1_7  and  C4_17 
REMARK    4  A    between atoms: N2_8  and  C7_20 
REMARK    5  A    between atoms: N2_8  and  C8_21 
REMARK       I    between atoms: N7_13  and  C19_32 
REMARK    6  A    between atoms: C1_14  and  C2_15 
REMARK    7  A    between atoms: C1_14  and  C6_19 
REMARK    8  A    between atoms: C2_15  and  C3_16 
REMARK    9  A    between atoms: C3_16  and  C13_26 
REMARK   10  A    between atoms: C4_17  and  C5_18 
REMARK   11  A    between atoms: C8_21  and  C14_27 
ROOT
ATOM      1  C5  UNK     1      18.577  60.878  23.818  1.00  0.00     0.032 A 
ATOM      2  C7  UNK     1      19.341  58.313  23.034  1.00  0.00     0.028 A 
ATOM      3  C9  UNK     1      19.748  60.315  24.323  1.00  0.00     0.019 A 
ATOM      4  C10 UNK     1      17.787  60.159  22.921  1.00  0.00     0.019 A 
ATOM      5  C11 UNK     1      20.130  59.032  23.931  1.00  0.00     0.030 A 
ATOM      6  C12 UNK     1      18.169  58.876  22.529  1.00  0.00     0.030 A 
ENDROOT
BRANCH   2   7
ATOM      7  N2  UNK     1      19.727  57.015  22.638  1.00  0.00    -0.384 N 
ATOM      8  H11 UNK     1      20.047  56.901  21.682  1.00  0.00     0.160 HD
BRANCH   7   9
ATOM      9  C8  UNK     1      19.686  55.890  23.519  1.00  0.00     0.180 C 
BRANCH   9  10
ATOM     10  C14 UNK     1      18.264  55.484  23.791  1.00  0.00     0.070 A 
ATOM     11  N3  UNK     1      17.779  55.708  25.026  1.00  0.00    -0.241 NA
ATOM     12  C15 UNK     1      16.500  55.327  25.220  1.00  0.00     0.174 A 
ATOM     13  C17 UNK     1      15.720  54.746  24.239  1.00  0.00     0.202 A 
ATOM     14  C18 UNK     1      15.928  55.551  26.551  1.00  0.00     0.292 A 
ATOM     15  N4  UNK     1      16.221  54.527  23.006  1.00  0.00    -0.237 NA
ATOM     16  N6  UNK     1      14.389  54.354  24.458  1.00  0.00    -0.043 NA
ATOM     17  C16 UNK     1      17.501  54.905  22.800  1.00  0.00     0.147 A 
ATOM     18  C19 UNK     1      13.876  54.552  25.641  1.00  0.00     0.703 A 
ATOM     19  N5  UNK     1      14.612  55.135  26.671  1.00  0.00    -0.152 N 
ATOM     20  N7  UNK     1      12.589  54.205  25.954  1.00  0.00    -0.233 N 
ATOM     21  H16 UNK     1      14.155  55.261  27.569  1.00  0.00     0.187 HD
ATOM     22  H18 UNK     1      11.979  53.775  25.266  1.00  0.00     0.174 HD
ATOM     23  H19 UNK     1      12.207  54.366  26.879  1.00  0.00     0.174 HD
ATOM     24  O6  UNK     1      16.588  56.065  27.446  1.00  0.00    -0.265 OA
ENDBRANCH   9  10
ENDBRANCH   7   9
ENDBRANCH   2   7
BRANCH   1  25
ATOM     25  C4  UNK     1      18.170  62.245  24.234  1.00  0.00     0.252 C 
ATOM     26  O2  UNK     1      17.498  62.931  23.468  1.00  0.00    -0.268 OA
ATOM     27  N1  UNK     1      18.574  62.641  25.502  1.00  0.00    -0.343 N 
ATOM     28  H6  UNK     1      19.059  61.990  26.111  1.00  0.00     0.163 HD
BRANCH  27  29
ATOM     29  C1  UNK     1      18.237  63.927  26.058  1.00  0.00     0.183 C 
BRANCH  29  30
ATOM     30  C2  UNK     1      18.784  65.093  25.225  1.00  0.00     0.046 C 
BRANCH  30  31
ATOM     31  C3  UNK     1      20.133  65.664  25.680  1.00  0.00     0.112 C 
BRANCH  31  32
ATOM     32  C13 UNK     1      20.793  66.559  24.653  1.00  0.00     0.139 C 
ATOM     33  O5  UNK     1      20.407  66.727  23.505  1.00  0.00    -0.650 OA
BRANCH  32  34
ATOM     34  O4  UNK     1      21.917  67.142  25.146  1.00  0.00    -0.776 OA
ATOM     35  H17 UNK     1      21.759  68.072  25.413  1.00  0.00     0.167 HD
ENDBRANCH  32  34
ENDBRANCH  31  32
ENDBRANCH  30  31
ENDBRANCH  29  30
BRANCH  29  36
ATOM     36  C6  UNK     1      16.735  63.964  26.250  1.00  0.00     0.163 C 
ATOM     37  O3  UNK     1      16.045  63.016  26.603  1.00  0.00    -0.648 OA
BRANCH  36  38
ATOM     38  O1  UNK     1      16.224  65.201  26.020  1.00  0.00    -0.775 OA
ATOM     39  H15 UNK     1      16.199  65.413  25.063  1.00  0.00     0.167 HD
ENDBRANCH  36  38
ENDBRANCH  29  36
ENDBRANCH  27  29
ENDBRANCH   1  25
TORSDOF 11
ENDMDL
MODEL 3
REMARK VINA RESULT:      -8.4      1.257      1.519
REMARK  11 active torsions:
REMARK  status: ('A' for Active; 'I' for Inactive)
REMARK    1  A    between atoms: O1_1  and  C6_19 
REMARK    2  A    between atoms: O4_4  and  C13_26 
REMARK    3  A    between atoms: N1_7  and  C1_14 
REMARK       I    between atoms: N1_7  and  C4_17 
REMARK    4  A    between atoms: N2_8  and  C7_20 
REMARK    5  A    between atoms: N2_8  and  C8_21 
REMARK       I    between atoms: N7_13  and  C19_32 
REMARK    6  A    between atoms: C1_14  and  C2_15 
REMARK    7  A    between atoms: C1_14  and  C6_19 
REMARK    8  A    between atoms: C2_15  and  C3_16 
REMARK    9  A    between atoms: C3_16  and  C13_26 
REMARK   10  A    between atoms: C4_17  and  C5_18 
REMARK   11  A    between atoms: C8_21  and  C14_27 
ROOT
ATOM      1  C5  UNK     1      18.515  61.023  23.845  1.00  0.00     0.032 A 
ATOM      2  C7  UNK     1      19.416  58.507  23.046  1.00  0.00     0.028 A 
ATOM      3  C9  UNK     1      19.681  60.492  24.396  1.00  0.00     0.019 A 
ATOM      4  C10 UNK     1      17.799  60.296  22.894  1.00  0.00     0.019 A 
ATOM      5  C11 UNK     1      20.131  59.234  23.996  1.00  0.00     0.030 A 
ATOM      6  C12 UNK     1      18.250  59.038  22.495  1.00  0.00     0.030 A 
ENDROOT
BRANCH   2   7
ATOM      7  N2  UNK     1      19.871  57.234  22.642  1.00  0.00    -0.384 N 
ATOM      8  H11 UNK     1      20.233  57.153  21.697  1.00  0.00     0.160 HD
BRANCH   7   9
ATOM      9  C8  UNK     1      19.842  56.090  23.499  1.00  0.00     0.180 C 
BRANCH   9  10
ATOM     10  C14 UNK     1      18.425  55.651  23.745  1.00  0.00     0.070 A 
ATOM     11  N3  UNK     1      17.907  55.876  24.967  1.00  0.00    -0.241 NA
ATOM     12  C15 UNK     1      16.635  55.464  25.138  1.00  0.00     0.174 A 
ATOM     13  C17 UNK     1      15.892  54.851  24.147  1.00  0.00     0.202 A 
ATOM     14  C18 UNK     1      16.028  55.689  26.453  1.00  0.00     0.292 A 
ATOM     15  N4  UNK     1      16.426  54.632  22.928  1.00  0.00    -0.237 NA
ATOM     16  N6  UNK     1      14.567  54.427  24.341  1.00  0.00    -0.043 NA
ATOM     17  C16 UNK     1      17.700  55.041  22.745  1.00  0.00     0.147 A 
ATOM     18  C19 UNK     1      14.023  54.625  25.511  1.00  0.00     0.703 A 
ATOM     19  N5  UNK     1      14.721  55.239  26.549  1.00  0.00    -0.152 N 
ATOM     20  N7  UNK     1      12.739  54.248  25.799  1.00  0.00    -0.233 N 
ATOM     21  H16 UNK     1      14.241  55.364  27.436  1.00  0.00     0.187 HD
ATOM     22  H18 UNK     1      12.156  53.794  25.103  1.00  0.00     0.174 HD
ATOM     23  H19 UNK     1      12.332  54.410  26.714  1.00  0.00     0.174 HD
ATOM     24  O6  UNK     1      16.655  56.229  27.356  1.00  0.00    -0.265 OA
ENDBRANCH   9  10
ENDBRANCH   7   9
ENDBRANCH   2   7
BRANCH   1  25
ATOM     25  C4  UNK     1      18.036  62.364  24.269  1.00  0.00     0.252 C 
ATOM     26  O2  UNK     1      17.297  63.001  23.523  1.00  0.00    -0.268 OA
ATOM     27  N1  UNK     1      18.454  62.791  25.523  1.00  0.00    -0.343 N 
ATOM     28  H6  UNK     1      18.998  62.175  26.118  1.00  0.00     0.163 HD
BRANCH  27  29
ATOM     29  C1  UNK     1      18.054  64.056  26.084  1.00  0.00     0.183 C 
BRANCH  29  30
ATOM     30  C2  UNK     1      17.742  63.966  27.583  1.00  0.00     0.046 C 
BRANCH  30  31
ATOM     31  C3  UNK     1      17.391  62.569  28.110  1.00  0.00     0.112 C 
BRANCH  31  32
ATOM     32  C13 UNK     1      16.033  62.072  27.663  1.00  0.00     0.139 C 
ATOM     33  O5  UNK     1      15.834  61.252  26.778  1.00  0.00    -0.650 OA
BRANCH  32  34
ATOM     34  O4  UNK     1      15.027  62.683  28.343  1.00  0.00    -0.776 OA
ATOM     35  H17 UNK     1      14.276  62.912  27.756  1.00  0.00     0.167 HD
ENDBRANCH  32  34
ENDBRANCH  31  32
ENDBRANCH  30  31
ENDBRANCH  29  30
BRANCH  29  36
ATOM     36  C6  UNK     1      19.126  65.070  25.741  1.00  0.00     0.163 C 
ATOM     37  O3  UNK     1      20.248  64.800  25.334  1.00  0.00    -0.648 OA
BRANCH  36  38
ATOM     38  O1  UNK     1      18.688  66.345  25.902  1.00  0.00    -0.775 OA
ATOM     39  H15 UNK     1      18.033  66.597  25.216  1.00  0.00     0.167 HD
ENDBRANCH  36  38
ENDBRANCH  29  36
ENDBRANCH  27  29
ENDBRANCH   1  25
TORSDOF 11
ENDMDL
MODEL 4
REMARK VINA RESULT:      -8.4      4.888      5.892
REMARK  11 active torsions:
REMARK  status: ('A' for Active; 'I' for Inactive)
REMARK    1  A    between atoms: O1_1  and  C6_19 
REMARK    2  A    between atoms: O4_4  and  C13_26 
REMARK    3  A    between atoms: N1_7  and  C1_14 
REMARK       I    between atoms: N1_7  and  C4_17 
REMARK    4  A    between atoms: N2_8  and  C7_20 
REMARK    5  A    between atoms: N2_8  and  C8_21 
REMARK       I    between atoms: N7_13  and  C19_32 
REMARK    6  A    between atoms: C1_14  and  C2_15 
REMARK    7  A    between atoms: C1_14  and  C6_19 
REMARK    8  A    between atoms: C2_15  and  C3_16 
REMARK    9  A    between atoms: C3_16  and  C13_26 
REMARK   10  A    between atoms: C4_17  and  C5_18 
REMARK   11  A    between atoms: C8_21  and  C14_27 
ROOT
ATOM      1  C5  UNK     1      20.714  57.037  27.228  1.00  0.00     0.032 A 
ATOM      2  C7  UNK     1      20.489  55.451  24.944  1.00  0.00     0.028 A 
ATOM      3  C9  UNK     1      20.975  57.583  25.971  1.00  0.00     0.019 A 
ATOM      4  C10 UNK     1      20.340  55.698  27.342  1.00  0.00     0.019 A 
ATOM      5  C11 UNK     1      20.863  56.790  24.829  1.00  0.00     0.030 A 
ATOM      6  C12 UNK     1      20.228  54.905  26.200  1.00  0.00     0.030 A 
ENDROOT
BRANCH   2   7
ATOM      7  N2  UNK     1      20.377  54.649  23.789  1.00  0.00    -0.384 N 
ATOM      8  H11 UNK     1      21.058  53.905  23.676  1.00  0.00     0.160 HD
BRANCH   7   9
ATOM      9  C8  UNK     1      19.359  54.843  22.804  1.00  0.00     0.180 C 
BRANCH   9  10
ATOM     10  C14 UNK     1      18.011  54.472  23.357  1.00  0.00     0.070 A 
ATOM     11  N3  UNK     1      17.282  55.448  23.930  1.00  0.00    -0.241 NA
ATOM     12  C15 UNK     1      16.083  55.065  24.410  1.00  0.00     0.174 A 
ATOM     13  C17 UNK     1      15.609  53.769  24.334  1.00  0.00     0.202 A 
ATOM     14  C18 UNK     1      15.253  56.094  25.043  1.00  0.00     0.292 A 
ATOM     15  N4  UNK     1      16.351  52.801  23.758  1.00  0.00    -0.237 NA
ATOM     16  N6  UNK     1      14.356  53.385  24.840  1.00  0.00    -0.043 NA
ATOM     17  C16 UNK     1      17.555  53.173  23.272  1.00  0.00     0.147 A 
ATOM     18  C19 UNK     1      13.615  54.299  25.405  1.00  0.00     0.703 A 
ATOM     19  N5  UNK     1      14.037  55.623  25.511  1.00  0.00    -0.152 N 
ATOM     20  N7  UNK     1      12.380  54.026  25.928  1.00  0.00    -0.233 N 
ATOM     21  H16 UNK     1      13.413  56.286  25.961  1.00  0.00     0.187 HD
ATOM     22  H18 UNK     1      11.991  53.089  25.896  1.00  0.00     0.174 HD
ATOM     23  H19 UNK     1      11.817  54.748  26.363  1.00  0.00     0.174 HD
ATOM     24  O6  UNK     1      15.639  57.253  25.129  1.00  0.00    -0.265 OA
ENDBRANCH   9  10
ENDBRANCH   7   9
ENDBRANCH   2   7
BRANCH   1  25
ATOM     25  C4  UNK     1      20.832  57.881  28.444  1.00  0.00     0.252 C 
ATOM     26  O2  UNK     1      21.862  58.524  28.632  1.00  0.00    -0.268 OA
ATOM     27  N1  UNK     1      19.726  57.896  29.285  1.00  0.00    -0.343 N 
ATOM     28  H6  UNK     1      18.878  57.404  29.023  1.00  0.00     0.163 HD
BRANCH  27  29
ATOM     29  C1  UNK     1      19.679  58.685  30.489  1.00  0.00     0.183 C 
BRANCH  29  30
ATOM     30  C2  UNK     1      19.269  60.140  30.228  1.00  0.00     0.046 C 
BRANCH  30  31
ATOM     31  C3  UNK     1      20.048  61.204  31.011  1.00  0.00     0.112 C 
BRANCH  31  32
ATOM     32  C13 UNK     1      21.345  60.698  31.603  1.00  0.00     0.139 C 
ATOM     33  O5  UNK     1      21.501  60.326  32.757  1.00  0.00    -0.650 OA
BRANCH  32  34
ATOM     34  O4  UNK     1      22.359  60.740  30.699  1.00  0.00    -0.776 OA
ATOM     35  H17 UNK     1      23.190  60.371  31.064  1.00  0.00     0.167 HD
ENDBRANCH  32  34
ENDBRANCH  31  32
ENDBRANCH  30  31
ENDBRANCH  29  30
BRANCH  29  36
ATOM     36  C6  UNK     1      18.783  57.964  31.475  1.00  0.00     0.163 C 
ATOM     37  O3  UNK     1      17.848  57.232  31.175  1.00  0.00    -0.648 OA
BRANCH  36  38
ATOM     38  O1  UNK     1      19.156  58.192  32.761  1.00  0.00    -0.775 OA
ATOM     39  H15 UNK     1      20.114  58.034  32.897  1.00  0.00     0.167 HD
ENDBRANCH  36  38
ENDBRANCH  29  36
ENDBRANCH  27  29
ENDBRANCH   1  25
TORSDOF 11
ENDMDL
MODEL 5
REMARK VINA RESULT:      -8.1      2.813      4.925
REMARK  11 active torsions:
REMARK  status: ('A' for Active; 'I' for Inactive)
REMARK    1  A    between atoms: O1_1  and  C6_19 
REMARK    2  A    between atoms: O4_4  and  C13_26 
REMARK    3  A    between atoms: N1_7  and  C1_14 
REMARK       I    between atoms: N1_7  and  C4_17 
REMARK    4  A    between atoms: N2_8  and  C7_20 
REMARK    5  A    between atoms: N2_8  and  C8_21 
REMARK       I    between atoms: N7_13  and  C19_32 
REMARK    6  A    between atoms: C1_14  and  C2_15 
REMARK    7  A    between atoms: C1_14  and  C6_19 
REMARK    8  A    between atoms: C2_15  and  C3_16 
REMARK    9  A    between atoms: C3_16  and  C13_26 
REMARK   10  A    between atoms: C4_17  and  C5_18 
REMARK   11  A    between atoms: C8_21  and  C14_27 
ROOT
ATOM      1  C5  UNK     1      18.274  64.178  25.774  1.00  0.00     0.032 A 
ATOM      2  C7  UNK     1      17.851  61.421  25.780  1.00  0.00     0.028 A 
ATOM      3  C9  UNK     1      17.665  63.568  26.871  1.00  0.00     0.019 A 
ATOM      4  C10 UNK     1      18.671  63.410  24.681  1.00  0.00     0.019 A 
ATOM      5  C11 UNK     1      17.454  62.190  26.874  1.00  0.00     0.030 A 
ATOM      6  C12 UNK     1      18.460  62.031  24.684  1.00  0.00     0.030 A 
ENDROOT
BRANCH   2   7
ATOM      7  N2  UNK     1      17.637  60.027  25.783  1.00  0.00    -0.384 N 
ATOM      8  H11 UNK     1      17.787  59.539  26.660  1.00  0.00     0.160 HD
BRANCH   7   9
ATOM      9  C8  UNK     1      17.223  59.302  24.622  1.00  0.00     0.180 C 
BRANCH   9  10
ATOM     10  C14 UNK     1      18.125  58.122  24.388  1.00  0.00     0.070 A 
ATOM     11  N3  UNK     1      17.598  57.050  23.766  1.00  0.00    -0.241 NA
ATOM     12  C15 UNK     1      18.446  56.018  23.580  1.00  0.00     0.174 A 
ATOM     13  C17 UNK     1      19.766  56.032  23.988  1.00  0.00     0.202 A 
ATOM     14  C18 UNK     1      17.917  54.829  22.907  1.00  0.00     0.292 A 
ATOM     15  N4  UNK     1      20.278  57.114  24.610  1.00  0.00    -0.237 NA
ATOM     16  N6  UNK     1      20.636  54.949  23.787  1.00  0.00    -0.043 NA
ATOM     17  C16 UNK     1      19.439  58.154  24.802  1.00  0.00     0.147 A 
ATOM     18  C19 UNK     1      20.169  53.888  23.188  1.00  0.00     0.703 A 
ATOM     19  N5  UNK     1      18.847  53.814  22.752  1.00  0.00    -0.152 N 
ATOM     20  N7  UNK     1      20.937  52.780  22.946  1.00  0.00    -0.233 N 
ATOM     21  H16 UNK     1      18.545  52.960  22.293  1.00  0.00     0.187 HD
ATOM     22  H18 UNK     1      21.911  52.744  23.228  1.00  0.00     0.174 HD
ATOM     23  H19 UNK     1      20.557  51.964  22.479  1.00  0.00     0.174 HD
ATOM     24  O6  UNK     1      16.753  54.780  22.530  1.00  0.00    -0.265 OA
ENDBRANCH   9  10
ENDBRANCH   7   9
ENDBRANCH   2   7
BRANCH   1  25
ATOM     25  C4  UNK     1      18.500  65.647  25.771  1.00  0.00     0.252 C 
ATOM     26  O2  UNK     1      17.545  66.402  25.933  1.00  0.00    -0.268 OA
ATOM     27  N1  UNK     1      19.816  66.060  25.605  1.00  0.00    -0.343 N 
ATOM     28  H6  UNK     1      20.564  65.376  25.559  1.00  0.00     0.163 HD
BRANCH  27  29
ATOM     29  C1  UNK     1      20.198  67.448  25.605  1.00  0.00     0.183 C 
BRANCH  29  30
ATOM     30  C2  UNK     1      21.707  67.647  25.789  1.00  0.00     0.046 C 
BRANCH  30  31
ATOM     31  C3  UNK     1      22.215  67.609  27.236  1.00  0.00     0.112 C 
BRANCH  31  32
ATOM     32  C13 UNK     1      23.664  68.018  27.384  1.00  0.00     0.139 C 
ATOM     33  O5  UNK     1      24.244  68.842  26.691  1.00  0.00    -0.650 OA
BRANCH  32  34
ATOM     34  O4  UNK     1      24.283  67.321  28.374  1.00  0.00    -0.776 OA
ATOM     35  H17 UNK     1      25.033  67.821  28.759  1.00  0.00     0.167 HD
ENDBRANCH  32  34
ENDBRANCH  31  32
ENDBRANCH  30  31
ENDBRANCH  29  30
BRANCH  29  36
ATOM     36  C6  UNK     1      19.648  68.076  24.341  1.00  0.00     0.163 C 
ATOM     37  O3  UNK     1      20.011  67.805  23.203  1.00  0.00    -0.648 OA
BRANCH  36  38
ATOM     38  O1  UNK     1      18.658  68.968  24.605  1.00  0.00    -0.775 OA
ATOM     39  H15 UNK     1      17.853  68.528  24.954  1.00  0.00     0.167 HD
ENDBRANCH  36  38
ENDBRANCH  29  36
ENDBRANCH  27  29
ENDBRANCH   1  25
TORSDOF 11
ENDMDL
MODEL 6
REMARK VINA RESULT:      -8.0      1.801      2.475
REMARK  11 active torsions:
REMARK  status: ('A' for Active; 'I' for Inactive)
REMARK    1  A    between atoms: O1_1  and  C6_19 
REMARK    2  A    between atoms: O4_4  and  C13_26 
REMARK    3  A    between atoms: N1_7  and  C1_14 
REMARK       I    between atoms: N1_7  and  C4_17 
REMARK    4  A    between atoms: N2_8  and  C7_20 
REMARK    5  A    between atoms: N2_8  and  C8_21 
REMARK       I    between atoms: N7_13  and  C19_32 
REMARK    6  A    between atoms: C1_14  and  C2_15 
REMARK    7  A    between atoms: C1_14  and  C6_19 
REMARK    8  A    between atoms: C2_15  and  C3_16 
REMARK    9  A    between atoms: C3_16  and  C13_26 
REMARK   10  A    between atoms: C4_17  and  C5_18 
REMARK   11  A    between atoms: C8_21  and  C14_27 
ROOT
ATOM      1  C5  UNK     1      18.540  60.997  23.891  1.00  0.00     0.032 A 
ATOM      2  C7  UNK     1      19.399  58.438  23.186  1.00  0.00     0.028 A 
ATOM      3  C9  UNK     1      17.742  60.193  23.078  1.00  0.00     0.019 A 
ATOM      4  C10 UNK     1      19.768  60.522  24.351  1.00  0.00     0.019 A 
ATOM      5  C11 UNK     1      18.171  58.913  22.725  1.00  0.00     0.030 A 
ATOM      6  C12 UNK     1      20.197  59.242  23.998  1.00  0.00     0.030 A 
ENDROOT
BRANCH   2   7
ATOM      7  N2  UNK     1      19.833  57.145  22.828  1.00  0.00    -0.384 N 
ATOM      8  H11 UNK     1      19.796  56.901  21.844  1.00  0.00     0.160 HD
BRANCH   7   9
ATOM      9  C8  UNK     1      20.315  56.195  23.783  1.00  0.00     0.180 C 
BRANCH   9  10
ATOM     10  C14 UNK     1      19.204  55.754  24.695  1.00  0.00     0.070 A 
ATOM     11  N3  UNK     1      18.122  55.188  24.129  1.00  0.00    -0.241 NA
ATOM     12  C15 UNK     1      17.155  54.809  24.988  1.00  0.00     0.174 A 
ATOM     13  C17 UNK     1      17.241  54.979  26.357  1.00  0.00     0.202 A 
ATOM     14  C18 UNK     1      15.956  54.188  24.418  1.00  0.00     0.292 A 
ATOM     15  N4  UNK     1      18.331  55.549  26.909  1.00  0.00    -0.237 NA
ATOM     16  N6  UNK     1      16.223  54.580  27.239  1.00  0.00    -0.043 NA
ATOM     17  C16 UNK     1      19.308  55.932  26.058  1.00  0.00     0.147 A 
ATOM     18  C19 UNK     1      15.155  54.026  26.735  1.00  0.00     0.703 A 
ATOM     19  N5  UNK     1      15.010  53.827  25.363  1.00  0.00    -0.152 N 
ATOM     20  N7  UNK     1      14.108  53.604  27.510  1.00  0.00    -0.233 N 
ATOM     21  H16 UNK     1      14.154  53.391  25.034  1.00  0.00     0.187 HD
ATOM     22  H18 UNK     1      14.126  53.708  28.519  1.00  0.00     0.174 HD
ATOM     23  H19 UNK     1      13.285  53.175  27.101  1.00  0.00     0.174 HD
ATOM     24  O6  UNK     1      15.844  54.020  23.210  1.00  0.00    -0.265 OA
ENDBRANCH   9  10
ENDBRANCH   7   9
ENDBRANCH   2   7
BRANCH   1  25
ATOM     25  C4  UNK     1      18.083  62.359  24.268  1.00  0.00     0.252 C 
ATOM     26  O2  UNK     1      17.365  62.987  23.494  1.00  0.00    -0.268 OA
ATOM     27  N1  UNK     1      18.495  62.817  25.512  1.00  0.00    -0.343 N 
ATOM     28  H6  UNK     1      19.020  62.210  26.133  1.00  0.00     0.163 HD
BRANCH  27  29
ATOM     29  C1  UNK     1      18.113  64.106  26.029  1.00  0.00     0.183 C 
BRANCH  29  30
ATOM     30  C2  UNK     1      17.468  64.020  27.418  1.00  0.00     0.046 C 
BRANCH  30  31
ATOM     31  C3  UNK     1      17.323  62.609  28.001  1.00  0.00     0.112 C 
BRANCH  31  32
ATOM     32  C13 UNK     1      16.026  61.925  27.627  1.00  0.00     0.139 C 
ATOM     33  O5  UNK     1      15.877  61.148  26.694  1.00  0.00    -0.650 OA
BRANCH  32  34
ATOM     34  O4  UNK     1      15.005  62.309  28.437  1.00  0.00    -0.776 OA
ATOM     35  H17 UNK     1      14.158  61.886  28.184  1.00  0.00     0.167 HD
ENDBRANCH  32  34
ENDBRANCH  31  32
ENDBRANCH  30  31
ENDBRANCH  29  30
BRANCH  29  36
ATOM     36  C6  UNK     1      19.334  65.002  25.977  1.00  0.00     0.163 C 
ATOM     37  O3  UNK     1      20.207  64.955  25.120  1.00  0.00    -0.648 OA
BRANCH  36  38
ATOM     38  O1  UNK     1      19.341  65.911  26.986  1.00  0.00    -0.775 OA
ATOM     39  H15 UNK     1      19.955  65.653  27.706  1.00  0.00     0.167 HD
ENDBRANCH  36  38
ENDBRANCH  29  36
ENDBRANCH  27  29
ENDBRANCH   1  25
TORSDOF 11
ENDMDL
MODEL 7
REMARK VINA RESULT:      -7.8     10.050     13.843
REMARK  11 active torsions:
REMARK  status: ('A' for Active; 'I' for Inactive)
REMARK    1  A    between atoms: O1_1  and  C6_19 
REMARK    2  A    between atoms: O4_4  and  C13_26 
REMARK    3  A    between atoms: N1_7  and  C1_14 
REMARK       I    between atoms: N1_7  and  C4_17 
REMARK    4  A    between atoms: N2_8  and  C7_20 
REMARK    5  A    between atoms: N2_8  and  C8_21 
REMARK       I    between atoms: N7_13  and  C19_32 
REMARK    6  A    between atoms: C1_14  and  C2_15 
REMARK    7  A    between atoms: C1_14  and  C6_19 
REMARK    8  A    between atoms: C2_15  and  C3_16 
REMARK    9  A    between atoms: C3_16  and  C13_26 
REMARK   10  A    between atoms: C4_17  and  C5_18 
REMARK   11  A    between atoms: C8_21  and  C14_27 
ROOT
ATOM      1  C5  UNK     1      12.055  50.966  21.471  1.00  0.00     0.032 A 
ATOM      2  C7  UNK     1      10.111  50.639  19.498  1.00  0.00     0.028 A 
ATOM      3  C9  UNK     1      11.678  52.049  20.677  1.00  0.00     0.019 A 
ATOM      4  C10 UNK     1      11.460  49.720  21.278  1.00  0.00     0.019 A 
ATOM      5  C11 UNK     1      10.706  51.886  19.691  1.00  0.00     0.030 A 
ATOM      6  C12 UNK     1      10.488  49.556  20.291  1.00  0.00     0.030 A 
ENDROOT
BRANCH   2   7
ATOM      7  N2  UNK     1       9.129  50.473  18.499  1.00  0.00    -0.384 N 
ATOM      8  H11 UNK     1       8.432  51.206  18.412  1.00  0.00     0.160 HD
BRANCH   7   9
ATOM      9  C8  UNK     1       9.089  49.340  17.628  1.00  0.00     0.180 C 
BRANCH   9  10
ATOM     10  C14 UNK     1       8.348  49.673  16.363  1.00  0.00     0.070 A 
ATOM     11  N3  UNK     1       8.676  48.989  15.251  1.00  0.00    -0.241 NA
ATOM     12  C15 UNK     1       7.985  49.324  14.144  1.00  0.00     0.174 A 
ATOM     13  C17 UNK     1       7.003  50.296  14.122  1.00  0.00     0.202 A 
ATOM     14  C18 UNK     1       8.308  48.606  12.907  1.00  0.00     0.292 A 
ATOM     15  N4  UNK     1       6.685  50.973  15.245  1.00  0.00    -0.237 NA
ATOM     16  N6  UNK     1       6.291  50.634  12.960  1.00  0.00    -0.043 NA
ATOM     17  C16 UNK     1       7.371  50.646  16.361  1.00  0.00     0.147 A 
ATOM     18  C19 UNK     1       6.576  49.996  11.857  1.00  0.00     0.703 A 
ATOM     19  N5  UNK     1       7.555  49.006  11.815  1.00  0.00    -0.152 N 
ATOM     20  N7  UNK     1       5.940  50.253  10.672  1.00  0.00    -0.233 N 
ATOM     21  H16 UNK     1       7.730  48.547  10.926  1.00  0.00     0.187 HD
ATOM     22  H18 UNK     1       5.213  50.958  10.608  1.00  0.00     0.174 HD
ATOM     23  H19 UNK     1       6.174  49.748   9.825  1.00  0.00     0.174 HD
ATOM     24  O6  UNK     1       9.172  47.737  12.888  1.00  0.00    -0.265 OA
ENDBRANCH   9  10
ENDBRANCH   7   9
ENDBRANCH   2   7
BRANCH   1  25
ATOM     25  C4  UNK     1      13.089  51.140  22.523  1.00  0.00     0.252 C 
ATOM     26  O2  UNK     1      13.819  50.194  22.811  1.00  0.00    -0.268 OA
ATOM     27  N1  UNK     1      13.167  52.402  23.098  1.00  0.00    -0.343 N 
ATOM     28  H6  UNK     1      12.585  53.158  22.752  1.00  0.00     0.163 HD
BRANCH  27  29
ATOM     29  C1  UNK     1      14.134  52.734  24.113  1.00  0.00     0.183 C 
BRANCH  29  30
ATOM     30  C2  UNK     1      15.509  53.081  23.530  1.00  0.00     0.046 C 
BRANCH  30  31
ATOM     31  C3  UNK     1      16.537  53.633  24.525  1.00  0.00     0.112 C 
BRANCH  31  32
ATOM     32  C13 UNK     1      17.042  55.016  24.175  1.00  0.00     0.139 C 
ATOM     33  O5  UNK     1      18.019  55.260  23.481  1.00  0.00    -0.650 OA
BRANCH  32  34
ATOM     34  O4  UNK     1      16.296  55.987  24.765  1.00  0.00    -0.776 OA
ATOM     35  H17 UNK     1      16.140  56.744  24.163  1.00  0.00     0.167 HD
ENDBRANCH  32  34
ENDBRANCH  31  32
ENDBRANCH  30  31
ENDBRANCH  29  30
BRANCH  29  36
ATOM     36  C6  UNK     1      13.539  53.830  24.972  1.00  0.00     0.163 C 
ATOM     37  O3  UNK     1      13.501  55.017  24.676  1.00  0.00    -0.648 OA
BRANCH  36  38
ATOM     38  O1  UNK     1      13.005  53.341  26.122  1.00  0.00    -0.775 OA
ATOM     39  H15 UNK     1      12.722  52.407  26.025  1.00  0.00     0.167 HD
ENDBRANCH  36  38
ENDBRANCH  29  36
ENDBRANCH  27  29
ENDBRANCH   1  25
TORSDOF 11
ENDMDL
MODEL 8
REMARK VINA RESULT:      -7.8      8.470     13.460
REMARK  11 active torsions:
REMARK  status: ('A' for Active; 'I' for Inactive)
REMARK    1  A    between atoms: O1_1  and  C6_19 
REMARK    2  A    between atoms: O4_4  and  C13_26 
REMARK    3  A    between atoms: N1_7  and  C1_14 
REMARK       I    between atoms: N1_7  and  C4_17 
REMARK    4  A    between atoms: N2_8  and  C7_20 
REMARK    5  A    between atoms: N2_8  and  C8_21 
REMARK       I    between atoms: N7_13  and  C19_32 
REMARK    6  A    between atoms: C1_14  and  C2_15 
REMARK    7  A    between atoms: C1_14  and  C6_19 
REMARK    8  A    between atoms: C2_15  and  C3_16 
REMARK    9  A    between atoms: C3_16  and  C13_26 
REMARK   10  A    between atoms: C4_17  and  C5_18 
REMARK   11  A    between atoms: C8_21  and  C14_27 
ROOT
ATOM      1  C5  UNK     1      10.971  50.352  20.105  1.00  0.00     0.032 A 
ATOM      2  C7  UNK     1      12.622  51.222  22.179  1.00  0.00     0.028 A 
ATOM      3  C9  UNK     1      11.278  51.707  20.231  1.00  0.00     0.019 A 
ATOM      4  C10 UNK     1      11.490  49.432  21.016  1.00  0.00     0.019 A 
ATOM      5  C11 UNK     1      12.104  52.142  21.268  1.00  0.00     0.030 A 
ATOM      6  C12 UNK     1      12.315  49.867  22.052  1.00  0.00     0.030 A 
ENDROOT
BRANCH   2   7
ATOM      7  N2  UNK     1      13.456  51.661  23.227  1.00  0.00    -0.384 N 
ATOM      8  H11 UNK     1      14.175  51.018  23.545  1.00  0.00     0.160 HD
BRANCH   7   9
ATOM      9  C8  UNK     1      13.328  52.949  23.836  1.00  0.00     0.180 C 
BRANCH   9  10
ATOM     10  C14 UNK     1      14.644  53.393  24.413  1.00  0.00     0.070 A 
ATOM     11  N3  UNK     1      15.677  53.544  23.563  1.00  0.00    -0.241 NA
ATOM     12  C15 UNK     1      16.833  53.943  24.128  1.00  0.00     0.174 A 
ATOM     13  C17 UNK     1      16.977  54.188  25.481  1.00  0.00     0.202 A 
ATOM     14  C18 UNK     1      17.987  54.121  23.242  1.00  0.00     0.292 A 
ATOM     15  N4  UNK     1      15.932  54.032  26.320  1.00  0.00    -0.237 NA
ATOM     16  N6  UNK     1      18.190  54.603  26.055  1.00  0.00    -0.043 NA
ATOM     17  C16 UNK     1      14.768  53.632  25.765  1.00  0.00     0.147 A 
ATOM     18  C19 UNK     1      19.219  54.762  25.269  1.00  0.00     0.703 A 
ATOM     19  N5  UNK     1      19.137  54.532  23.897  1.00  0.00    -0.152 N 
ATOM     20  N7  UNK     1      20.444  55.163  25.731  1.00  0.00    -0.233 N 
ATOM     21  H16 UNK     1      19.974  54.674  23.340  1.00  0.00     0.187 HD
ATOM     22  H18 UNK     1      20.597  55.354  26.716  1.00  0.00     0.174 HD
ATOM     23  H19 UNK     1      21.234  55.282  25.106  1.00  0.00     0.174 HD
ATOM     24  O6  UNK     1      17.898  53.914  22.038  1.00  0.00    -0.265 OA
ENDBRANCH   9  10
ENDBRANCH   7   9
ENDBRANCH   2   7
BRANCH   1  25
ATOM     25  C4  UNK     1      10.093  49.889  19.000  1.00  0.00     0.252 C 
ATOM     26  O2  UNK     1       9.560  48.785  19.079  1.00  0.00    -0.268 OA
ATOM     27  N1  UNK     1       9.921  50.776  17.946  1.00  0.00    -0.343 N 
ATOM     28  H6  UNK     1      10.329  51.705  17.987  1.00  0.00     0.163 HD
BRANCH  27  29
ATOM     29  C1  UNK     1       9.081  50.482  16.814  1.00  0.00     0.183 C 
BRANCH  29  30
ATOM     30  C2  UNK     1       7.744  51.232  16.858  1.00  0.00     0.046 C 
BRANCH  30  31
ATOM     31  C3  UNK     1       6.494  50.360  17.037  1.00  0.00     0.112 C 
BRANCH  31  32
ATOM     32  C13 UNK     1       5.350  51.070  17.728  1.00  0.00     0.139 C 
ATOM     33  O5  UNK     1       4.417  50.523  18.298  1.00  0.00    -0.650 OA
BRANCH  32  34
ATOM     34  O4  UNK     1       5.452  52.420  17.608  1.00  0.00    -0.776 OA
ATOM     35  H17 UNK     1       4.710  52.798  17.091  1.00  0.00     0.167 HD
ENDBRANCH  32  34
ENDBRANCH  31  32
ENDBRANCH  30  31
ENDBRANCH  29  30
BRANCH  29  36
ATOM     36  C6  UNK     1       9.889  50.747  15.561  1.00  0.00     0.163 C 
ATOM     37  O3  UNK     1      10.775  50.023  15.126  1.00  0.00    -0.648 OA
BRANCH  36  38
ATOM     38  O1  UNK     1       9.494  51.885  14.932  1.00  0.00    -0.775 OA
ATOM     39  H15 UNK     1       9.065  52.514  15.550  1.00  0.00     0.167 HD
ENDBRANCH  36  38
ENDBRANCH  29  36
ENDBRANCH  27  29
ENDBRANCH   1  25
TORSDOF 11
ENDMDL
MODEL 9
REMARK VINA RESULT:      -7.6      2.885     10.442
REMARK  11 active torsions:
REMARK  status: ('A' for Active; 'I' for Inactive)
REMARK    1  A    between atoms: O1_1  and  C6_19 
REMARK    2  A    between atoms: O4_4  and  C13_26 
REMARK    3  A    between atoms: N1_7  and  C1_14 
REMARK       I    between atoms: N1_7  and  C4_17 
REMARK    4  A    between atoms: N2_8  and  C7_20 
REMARK    5  A    between atoms: N2_8  and  C8_21 
REMARK       I    between atoms: N7_13  and  C19_32 
REMARK    6  A    between atoms: C1_14  and  C2_15 
REMARK    7  A    between atoms: C1_14  and  C6_19 
REMARK    8  A    between atoms: C2_15  and  C3_16 
REMARK    9  A    between atoms: C3_16  and  C13_26 
REMARK   10  A    between atoms: C4_17  and  C5_18 
REMARK   11  A    between atoms: C8_21  and  C14_27 
ROOT
ATOM      1  C5  UNK     1      19.017  58.505  23.887  1.00  0.00     0.032 A 
ATOM      2  C7  UNK     1      19.003  61.255  24.356  1.00  0.00     0.028 A 
ATOM      3  C9  UNK     1      17.861  59.248  23.648  1.00  0.00     0.019 A 
ATOM      4  C10 UNK     1      20.166  59.138  24.360  1.00  0.00     0.019 A 
ATOM      5  C11 UNK     1      17.853  60.622  23.883  1.00  0.00     0.030 A 
ATOM      6  C12 UNK     1      20.159  60.513  24.595  1.00  0.00     0.030 A 
ENDROOT
BRANCH   2   7
ATOM      7  N2  UNK     1      18.996  62.645  24.594  1.00  0.00    -0.384 N 
ATOM      8  H11 UNK     1      19.778  63.179  24.230  1.00  0.00     0.160 HD
BRANCH   7   9
ATOM      9  C8  UNK     1      17.948  63.306  25.309  1.00  0.00     0.180 C 
BRANCH   9  10
ATOM     10  C14 UNK     1      18.367  64.699  25.689  1.00  0.00     0.070 A 
ATOM     11  N3  UNK     1      19.089  65.399  24.794  1.00  0.00    -0.241 NA
ATOM     12  C15 UNK     1      19.440  66.641  25.181  1.00  0.00     0.174 A 
ATOM     13  C17 UNK     1      19.096  67.184  26.404  1.00  0.00     0.202 A 
ATOM     14  C18 UNK     1      20.228  67.441  24.239  1.00  0.00     0.292 A 
ATOM     15  N4  UNK     1      18.372  66.471  27.291  1.00  0.00    -0.237 NA
ATOM     16  N6  UNK     1      19.470  68.481  26.794  1.00  0.00    -0.043 NA
ATOM     17  C16 UNK     1      18.014  65.225  26.914  1.00  0.00     0.147 A 
ATOM     18  C19 UNK     1      20.171  69.196  25.958  1.00  0.00     0.703 A 
ATOM     19  N5  UNK     1      20.548  68.704  24.709  1.00  0.00    -0.152 N 
ATOM     20  N7  UNK     1      20.584  70.469  26.243  1.00  0.00    -0.233 N 
ATOM     21  H16 UNK     1      21.094  69.310  24.104  1.00  0.00     0.187 HD
ATOM     22  H18 UNK     1      20.356  70.909  27.129  1.00  0.00     0.174 HD
ATOM     23  H19 UNK     1      21.129  71.011  25.581  1.00  0.00     0.174 HD
ATOM     24  O6  UNK     1      20.551  66.993  23.146  1.00  0.00    -0.265 OA
ENDBRANCH   9  10
ENDBRANCH   7   9
ENDBRANCH   2   7
BRANCH   1  25
ATOM     25  C4  UNK     1      19.025  57.041  23.636  1.00  0.00     0.252 C 
ATOM     26  O2  UNK     1      19.898  56.560  22.917  1.00  0.00    -0.268 OA
ATOM     27  N1  UNK     1      18.031  56.309  24.271  1.00  0.00    -0.343 N 
ATOM     28  H6  UNK     1      17.393  56.764  24.916  1.00  0.00     0.163 HD
BRANCH  27  29
ATOM     29  C1  UNK     1      17.922  54.878  24.146  1.00  0.00     0.183 C 
BRANCH  29  30
ATOM     30  C2  UNK     1      17.932  54.163  25.502  1.00  0.00     0.046 C 
BRANCH  30  31
ATOM     31  C3  UNK     1      17.685  55.050  26.728  1.00  0.00     0.112 C 
BRANCH  31  32
ATOM     32  C13 UNK     1      16.406  54.723  27.470  1.00  0.00     0.139 C 
ATOM     33  O5  UNK     1      16.183  54.975  28.645  1.00  0.00    -0.650 OA
BRANCH  32  34
ATOM     34  O4  UNK     1      15.522  54.064  26.676  1.00  0.00    -0.776 OA
ATOM     35  H17 UNK     1      15.727  54.180  25.725  1.00  0.00     0.167 HD
ENDBRANCH  32  34
ENDBRANCH  31  32
ENDBRANCH  30  31
ENDBRANCH  29  30
BRANCH  29  36
ATOM     36  C6  UNK     1      16.696  54.583  23.307  1.00  0.00     0.163 C 
ATOM     37  O3  UNK     1      15.663  54.074  23.722  1.00  0.00    -0.648 OA
BRANCH  36  38
ATOM     38  O1  UNK     1      16.853  54.985  22.019  1.00  0.00    -0.775 OA
ATOM     39  H15 UNK     1      16.528  54.312  21.384  1.00  0.00     0.167 HD
ENDBRANCH  36  38
ENDBRANCH  29  36
ENDBRANCH  27  29
ENDBRANCH   1  25
TORSDOF 11
ENDMDL
