REMARK  11 active torsions:
REMARK  status: ('A' for Active; 'I' for Inactive)
REMARK    1  A    between atoms: O1_1  and  C6_19 
REMARK    2  A    between atoms: O4_4  and  C13_26 
REMARK    3  A    between atoms: N1_7  and  C1_14 
REMARK       I    between atoms: N1_7  and  C4_17 
REMARK    4  A    between atoms: N2_8  and  C7_20 
REMARK    5  A    between atoms: N2_8  and  C8_21 
REMARK       I    between atoms: N7_13  and  C19_32 
REMARK    6  A    between atoms: C1_14  and  C2_15 
REMARK    7  A    between atoms: C1_14  and  C6_19 
REMARK    8  A    between atoms: C2_15  and  C3_16 
REMARK    9  A    between atoms: C3_16  and  C13_26 
REMARK   10  A    between atoms: C4_17  and  C5_18 
REMARK   11  A    between atoms: C8_21  and  C14_27 
ROOT
ATOM      1  C5  UNK     1     -35.821  58.498  48.852  1.00  0.00     0.032 A 
ATOM      2  C7  UNK     1     -36.879  55.952  49.276  1.00  0.00     0.028 A 
ATOM      3  C9  UNK     1     -35.025  57.370  48.654  1.00  0.00     0.019 A 
ATOM      4  C10 UNK     1     -37.146  58.353  49.262  1.00  0.00     0.019 A 
ATOM      5  C11 UNK     1     -35.554  56.097  48.866  1.00  0.00     0.030 A 
ATOM      6  C12 UNK     1     -37.675  57.080  49.474  1.00  0.00     0.030 A 
ENDROOT
BRANCH   2   7
ATOM      7  N2  UNK     1     -37.414  54.665  49.491  1.00  0.00    -0.384 N 
ATOM      8  H11 UNK     1     -38.384  54.612  49.785  1.00  0.00     0.160 HD
BRANCH   7   9
ATOM      9  C8  UNK     1     -36.655  53.467  49.308  1.00  0.00     0.180 C 
BRANCH   9  10
ATOM     10  C14 UNK     1     -37.506  52.257  49.578  1.00  0.00     0.070 A 
ATOM     11  N3  UNK     1     -37.952  51.560  48.516  1.00  0.00    -0.241 NA
ATOM     12  C15 UNK     1     -38.710  50.485  48.810  1.00  0.00     0.174 A 
ATOM     13  C17 UNK     1     -39.023  50.102  50.100  1.00  0.00     0.202 A 
ATOM     14  C18 UNK     1     -39.219  49.695  47.685  1.00  0.00     0.292 A 
ATOM     15  N4  UNK     1     -38.569  50.811  51.154  1.00  0.00    -0.237 NA
ATOM     16  N6  UNK     1     -39.815  48.979  50.390  1.00  0.00    -0.043 NA
ATOM     17  C16 UNK     1     -37.808  51.890  50.872  1.00  0.00     0.147 A 
ATOM     18  C19 UNK     1     -40.270  48.273  49.391  1.00  0.00     0.703 A 
ATOM     19  N5  UNK     1     -39.988  48.608  48.068  1.00  0.00    -0.152 N 
ATOM     20  N7  UNK     1     -41.050  47.162  49.569  1.00  0.00    -0.233 N 
ATOM     21  H16 UNK     1     -40.372  48.018  47.336  1.00  0.00     0.187 HD
ATOM     22  H18 UNK     1     -41.306  46.843  50.498  1.00  0.00     0.174 HD
ATOM     23  H19 UNK     1     -41.395  46.625  48.781  1.00  0.00     0.174 HD
ATOM     24  O6  UNK     1     -38.962  50.003  46.528  1.00  0.00    -0.265 OA
ENDBRANCH   9  10
ENDBRANCH   7   9
ENDBRANCH   2   7
BRANCH   1  25
ATOM     25  C4  UNK     1     -35.258  59.854  48.625  1.00  0.00     0.252 C 
ATOM     26  O2  UNK     1     -34.047  60.028  48.738  1.00  0.00    -0.268 OA
ATOM     27  N1  UNK     1     -36.169  60.840  48.270  1.00  0.00    -0.343 N 
ATOM     28  H6  UNK     1     -37.144  60.604  48.116  1.00  0.00     0.163 HD
BRANCH  27  29
ATOM     29  C1  UNK     1     -35.774  62.197  47.993  1.00  0.00     0.183 C 
BRANCH  29  30
ATOM     30  C2  UNK     1     -35.406  62.418  46.521  1.00  0.00     0.046 C 
BRANCH  30  31
ATOM     31  C3  UNK     1     -36.535  62.190  45.508  1.00  0.00     0.112 C 
BRANCH  31  32
ATOM     32  C13 UNK     1     -36.117  62.409  44.070  1.00  0.00     0.139 C 
ATOM     33  O5  UNK     1     -34.997  62.728  43.697  1.00  0.00    -0.650 OA
BRANCH  32  34
ATOM     34  O4  UNK     1     -37.161  62.248  43.215  1.00  0.00    -0.776 OA
ATOM     35  H17 UNK     1     -36.899  62.407  42.284  1.00  0.00     0.167 HD
ENDBRANCH  32  34
ENDBRANCH  31  32
ENDBRANCH  30  31
ENDBRANCH  29  30
BRANCH  29  36
ATOM     36  C6  UNK     1     -36.878  63.107  48.491  1.00  0.00     0.163 C 
ATOM     37  O3  UNK     1     -37.965  62.733  48.912  1.00  0.00    -0.648 OA
BRANCH  36  38
ATOM     38  O1  UNK     1     -36.513  64.415  48.455  1.00  0.00    -0.775 OA
ATOM     39  H15 UNK     1     -37.223  65.002  48.792  1.00  0.00     0.167 HD
ENDBRANCH  36  38
ENDBRANCH  29  36
ENDBRANCH  27  29
ENDBRANCH   1  25
TORSDOF 11
