REMARK  11 active torsions:
REMARK  status: ('A' for Active; 'I' for Inactive)
REMARK    1  A    between atoms: O1_1  and  C6_19 
REMARK    2  A    between atoms: O4_4  and  C13_26 
REMARK    3  A    between atoms: N1_7  and  C1_14 
REMARK       I    between atoms: N1_7  and  C4_17 
REMARK    4  A    between atoms: N2_8  and  C7_20 
REMARK    5  A    between atoms: N2_8  and  C8_21 
REMARK       I    between atoms: N7_13  and  C19_32 
REMARK    6  A    between atoms: C1_14  and  C2_15 
REMARK    7  A    between atoms: C1_14  and  C6_19 
REMARK    8  A    between atoms: C2_15  and  C3_16 
REMARK    9  A    between atoms: C3_16  and  C13_26 
REMARK   10  A    between atoms: C4_17  and  C5_18 
REMARK   11  A    between atoms: C8_21  and  C14_27 
ROOT
ATOM      1  C5  UNK     1     -22.732  41.423  77.544  1.00  0.00     0.032 A 
ATOM      2  C7  UNK     1     -24.579  39.499  76.726  1.00  0.00     0.028 A 
ATOM      3  C9  UNK     1     -23.891  41.810  76.871  1.00  0.00     0.019 A 
ATOM      4  C10 UNK     1     -22.497  40.073  77.808  1.00  0.00     0.019 A 
ATOM      5  C11 UNK     1     -24.815  40.848  76.462  1.00  0.00     0.030 A 
ATOM      6  C12 UNK     1     -23.420  39.111  77.399  1.00  0.00     0.030 A 
ENDROOT
BRANCH   2   7
ATOM      7  N2  UNK     1     -25.512  38.525  76.312  1.00  0.00    -0.384 N 
ATOM      8  H11 UNK     1     -25.297  37.558  76.531  1.00  0.00     0.160 HD
BRANCH   7   9
ATOM      9  C8  UNK     1     -26.719  38.852  75.619  1.00  0.00     0.180 C 
BRANCH   9  10
ATOM     10  C14 UNK     1     -27.522  37.610  75.345  1.00  0.00     0.070 A 
ATOM     11  N3  UNK     1     -28.600  37.382  76.118  1.00  0.00    -0.241 NA
ATOM     12  C15 UNK     1     -29.286  36.258  75.833  1.00  0.00     0.174 A 
ATOM     13  C17 UNK     1     -28.931  35.381  74.825  1.00  0.00     0.202 A 
ATOM     14  C18 UNK     1     -30.469  35.968  76.650  1.00  0.00     0.292 A 
ATOM     15  N4  UNK     1     -27.847  35.623  74.059  1.00  0.00    -0.237 NA
ATOM     16  N6  UNK     1     -29.656  34.213  74.542  1.00  0.00    -0.043 NA
ATOM     17  C16 UNK     1     -27.153  36.748  74.335  1.00  0.00     0.147 A 
ATOM     18  C19 UNK     1     -30.709  33.952  75.267  1.00  0.00     0.703 A 
ATOM     19  N5  UNK     1     -31.118  34.796  76.296  1.00  0.00    -0.152 N 
ATOM     20  N7  UNK     1     -31.481  32.838  75.069  1.00  0.00    -0.233 N 
ATOM     21  H16 UNK     1     -31.947  34.537  76.824  1.00  0.00     0.187 HD
ATOM     22  H18 UNK     1     -31.259  32.167  74.342  1.00  0.00     0.174 HD
ATOM     23  H19 UNK     1     -32.297  32.651  75.642  1.00  0.00     0.174 HD
ATOM     24  O6  UNK     1     -30.815  36.721  77.552  1.00  0.00    -0.265 OA
ENDBRANCH   9  10
ENDBRANCH   7   9
ENDBRANCH   2   7
BRANCH   1  25
ATOM     25  C4  UNK     1     -21.749  42.448  77.981  1.00  0.00     0.252 C 
ATOM     26  O2  UNK     1     -21.684  43.514  77.374  1.00  0.00    -0.268 OA
ATOM     27  N1  UNK     1     -20.976  42.117  79.086  1.00  0.00    -0.343 N 
ATOM     28  H6  UNK     1     -21.143  41.250  79.586  1.00  0.00     0.163 HD
BRANCH  27  29
ATOM     29  C1  UNK     1     -19.998  43.016  79.644  1.00  0.00     0.183 C 
BRANCH  29  30
ATOM     30  C2  UNK     1     -20.589  43.952  80.704  1.00  0.00     0.046 C 
BRANCH  30  31
ATOM     31  C3  UNK     1     -21.162  43.271  81.953  1.00  0.00     0.112 C 
BRANCH  31  32
ATOM     32  C13 UNK     1     -21.744  44.237  82.962  1.00  0.00     0.139 C 
ATOM     33  O5  UNK     1     -21.788  45.453  82.837  1.00  0.00    -0.650 OA
BRANCH  32  34
ATOM     34  O4  UNK     1     -22.190  43.593  84.073  1.00  0.00    -0.776 OA
ATOM     35  H17 UNK     1     -22.551  44.218  84.737  1.00  0.00     0.167 HD
ENDBRANCH  32  34
ENDBRANCH  31  32
ENDBRANCH  30  31
ENDBRANCH  29  30
BRANCH  29  36
ATOM     36  C6  UNK     1     -18.840  42.178  80.146  1.00  0.00     0.163 C 
ATOM     37  O3  UNK     1     -18.823  40.955  80.195  1.00  0.00    -0.648 OA
BRANCH  36  38
ATOM     38  O1  UNK     1     -17.779  42.945  80.510  1.00  0.00    -0.775 OA
ATOM     39  H15 UNK     1     -17.024  42.401  80.820  1.00  0.00     0.167 HD
ENDBRANCH  36  38
ENDBRANCH  29  36
ENDBRANCH  27  29
ENDBRANCH   1  25
TORSDOF 11
