REMARK  11 active torsions:
REMARK  status: ('A' for Active; 'I' for Inactive)
REMARK    1  A    between atoms: O1_1  and  C6_19 
REMARK    2  A    between atoms: O4_4  and  C13_26 
REMARK    3  A    between atoms: N1_7  and  C1_14 
REMARK       I    between atoms: N1_7  and  C4_17 
REMARK    4  A    between atoms: N2_8  and  C7_20 
REMARK    5  A    between atoms: N2_8  and  C8_21 
REMARK       I    between atoms: N7_13  and  C19_32 
REMARK    6  A    between atoms: C1_14  and  C2_15 
REMARK    7  A    between atoms: C1_14  and  C6_19 
REMARK    8  A    between atoms: C2_15  and  C3_16 
REMARK    9  A    between atoms: C3_16  and  C13_26 
REMARK   10  A    between atoms: C4_17  and  C5_18 
REMARK   11  A    between atoms: C8_21  and  C14_27 
ROOT
ATOM      1  C5  UNK     1      58.030  39.032   5.041  1.00  0.00     0.032 A 
ATOM      2  C7  UNK     1      57.950  38.701   2.272  1.00  0.00     0.028 A 
ATOM      3  C9  UNK     1      57.549  37.842   4.495  1.00  0.00     0.019 A 
ATOM      4  C10 UNK     1      58.470  40.057   4.203  1.00  0.00     0.019 A 
ATOM      5  C11 UNK     1      57.509  37.676   3.110  1.00  0.00     0.030 A 
ATOM      6  C12 UNK     1      58.430  39.891   2.819  1.00  0.00     0.030 A 
ENDROOT
BRANCH   2   7
ATOM      7  N2  UNK     1      57.909  38.535   0.873  1.00  0.00    -0.384 N 
ATOM      8  H11 UNK     1      58.244  39.307   0.307  1.00  0.00     0.160 HD
BRANCH   7   9
ATOM      9  C8  UNK     1      57.429  37.342   0.246  1.00  0.00     0.180 C 
BRANCH   9  10
ATOM     10  C14 UNK     1      57.543  37.450  -1.250  1.00  0.00     0.070 A 
ATOM     11  N3  UNK     1      58.547  36.781  -1.848  1.00  0.00    -0.241 NA
ATOM     12  C15 UNK     1      58.607  36.909  -3.188  1.00  0.00     0.174 A 
ATOM     13  C17 UNK     1      57.715  37.668  -3.923  1.00  0.00     0.202 A 
ATOM     14  C18 UNK     1      59.684  36.197  -3.883  1.00  0.00     0.292 A 
ATOM     15  N4  UNK     1      56.715  38.333  -3.309  1.00  0.00    -0.237 NA
ATOM     16  N6  UNK     1      57.792  37.792  -5.319  1.00  0.00    -0.043 NA
ATOM     17  C16 UNK     1      56.645  38.211  -1.966  1.00  0.00     0.147 A 
ATOM     18  C19 UNK     1      58.750  37.159  -5.941  1.00  0.00     0.703 A 
ATOM     19  N5  UNK     1      59.678  36.379  -5.256  1.00  0.00    -0.152 N 
ATOM     20  N7  UNK     1      58.909  37.218  -7.300  1.00  0.00    -0.233 N 
ATOM     21  H16 UNK     1      60.400  35.912  -5.798  1.00  0.00     0.187 HD
ATOM     22  H18 UNK     1      58.280  37.762  -7.880  1.00  0.00     0.174 HD
ATOM     23  H19 UNK     1      59.659  36.720  -7.767  1.00  0.00     0.174 HD
ATOM     24  O6  UNK     1      60.492  35.515  -3.265  1.00  0.00    -0.265 OA
ENDBRANCH   9  10
ENDBRANCH   7   9
ENDBRANCH   2   7
BRANCH   1  25
ATOM     25  C4  UNK     1      58.073  39.208   6.516  1.00  0.00     0.252 C 
ATOM     26  O2  UNK     1      57.290  38.575   7.219  1.00  0.00    -0.268 OA
ATOM     27  N1  UNK     1      59.038  40.082   6.996  1.00  0.00    -0.343 N 
ATOM     28  H6  UNK     1      59.705  40.508   6.360  1.00  0.00     0.163 HD
BRANCH  27  29
ATOM     29  C1  UNK     1      59.222  40.339   8.402  1.00  0.00     0.183 C 
BRANCH  29  30
ATOM     30  C2  UNK     1      60.201  39.360   9.060  1.00  0.00     0.046 C 
BRANCH  30  31
ATOM     31  C3  UNK     1      61.639  39.393   8.529  1.00  0.00     0.112 C 
BRANCH  31  32
ATOM     32  C13 UNK     1      62.561  38.400   9.202  1.00  0.00     0.139 C 
ATOM     33  O5  UNK     1      62.239  37.617  10.084  1.00  0.00    -0.650 OA
BRANCH  32  34
ATOM     34  O4  UNK     1      63.834  38.504   8.737  1.00  0.00    -0.776 OA
ATOM     35  H17 UNK     1      64.439  37.874   9.184  1.00  0.00     0.167 HD
ENDBRANCH  32  34
ENDBRANCH  31  32
ENDBRANCH  30  31
ENDBRANCH  29  30
BRANCH  29  36
ATOM     36  C6  UNK     1      59.616  41.794   8.555  1.00  0.00     0.163 C 
ATOM     37  O3  UNK     1      59.873  42.556   7.632  1.00  0.00    -0.648 OA
BRANCH  36  38
ATOM     38  O1  UNK     1      59.619  42.184   9.856  1.00  0.00    -0.775 OA
ATOM     39  H15 UNK     1      59.859  43.131   9.953  1.00  0.00     0.167 HD
ENDBRANCH  36  38
ENDBRANCH  29  36
ENDBRANCH  27  29
ENDBRANCH   1  25
TORSDOF 11
