REMARK  11 active torsions:
REMARK  status: ('A' for Active; 'I' for Inactive)
REMARK    1  A    between atoms: O1_1  and  C6_19 
REMARK    2  A    between atoms: O4_4  and  C13_26 
REMARK    3  A    between atoms: N1_7  and  C1_14 
REMARK       I    between atoms: N1_7  and  C4_17 
REMARK    4  A    between atoms: N2_8  and  C7_20 
REMARK    5  A    between atoms: N2_8  and  C8_21 
REMARK       I    between atoms: N7_13  and  C19_32 
REMARK    6  A    between atoms: C1_14  and  C2_15 
REMARK    7  A    between atoms: C1_14  and  C6_19 
REMARK    8  A    between atoms: C2_15  and  C3_16 
REMARK    9  A    between atoms: C3_16  and  C13_26 
REMARK   10  A    between atoms: C4_17  and  C5_18 
REMARK   11  A    between atoms: C8_21  and  C14_27 
ROOT
ATOM      1  C5  UNK     1      60.524  19.140  28.867  1.00  0.00     0.032 A 
ATOM      2  C7  UNK     1      60.362  18.849  31.637  1.00  0.00     0.028 A 
ATOM      3  C9  UNK     1      60.523  20.267  29.688  1.00  0.00     0.019 A 
ATOM      4  C10 UNK     1      60.444  17.867  29.431  1.00  0.00     0.019 A 
ATOM      5  C11 UNK     1      60.442  20.122  31.073  1.00  0.00     0.030 A 
ATOM      6  C12 UNK     1      60.363  17.721  30.816  1.00  0.00     0.030 A 
ENDROOT
BRANCH   2   7
ATOM      7  N2  UNK     1      60.279  18.700  33.037  1.00  0.00    -0.384 N 
ATOM      8  H11 UNK     1      60.227  17.754  33.398  1.00  0.00     0.160 HD
BRANCH   7   9
ATOM      9  C8  UNK     1      60.273  19.812  33.937  1.00  0.00     0.180 C 
BRANCH   9  10
ATOM     10  C14 UNK     1      60.213  19.336  35.362  1.00  0.00     0.070 A 
ATOM     11  N3  UNK     1      61.349  19.381  36.082  1.00  0.00    -0.241 NA
ATOM     12  C15 UNK     1      61.244  18.945  37.352  1.00  0.00     0.174 A 
ATOM     13  C17 UNK     1      60.066  18.478  37.904  1.00  0.00     0.202 A 
ATOM     14  C18 UNK     1      62.457  18.976  38.176  1.00  0.00     0.292 A 
ATOM     15  N4  UNK     1      58.935  18.439  37.169  1.00  0.00    -0.237 NA
ATOM     16  N6  UNK     1      59.973  18.025  39.230  1.00  0.00    -0.043 NA
ATOM     17  C16 UNK     1      59.029  18.874  35.895  1.00  0.00     0.147 A 
ATOM     18  C19 UNK     1      61.051  18.051  39.965  1.00  0.00     0.703 A 
ATOM     19  N5  UNK     1      62.267  18.511  39.467  1.00  0.00    -0.152 N 
ATOM     20  N7  UNK     1      61.062  17.631  41.269  1.00  0.00    -0.233 N 
ATOM     21  H16 UNK     1      63.069  18.506  40.091  1.00  0.00     0.187 HD
ATOM     22  H18 UNK     1      60.222  17.280  41.715  1.00  0.00     0.174 HD
ATOM     23  H19 UNK     1      61.909  17.658  41.826  1.00  0.00     0.174 HD
ATOM     24  O6  UNK     1      63.519  19.383  37.722  1.00  0.00    -0.265 OA
ENDBRANCH   9  10
ENDBRANCH   7   9
ENDBRANCH   2   7
BRANCH   1  25
ATOM     25  C4  UNK     1      60.612  19.295  27.392  1.00  0.00     0.252 C 
ATOM     26  O2  UNK     1      60.212  20.334  26.873  1.00  0.00    -0.268 OA
ATOM     27  N1  UNK     1      61.177  18.232  26.701  1.00  0.00    -0.343 N 
ATOM     28  H6  UNK     1      61.560  17.440  27.206  1.00  0.00     0.163 HD
BRANCH  27  29
ATOM     29  C1  UNK     1      61.354  18.243  25.271  1.00  0.00     0.183 C 
BRANCH  29  30
ATOM     30  C2  UNK     1      62.695  18.852  24.845  1.00  0.00     0.046 C 
BRANCH  30  31
ATOM     31  C3  UNK     1      63.949  18.111  25.326  1.00  0.00     0.112 C 
BRANCH  31  32
ATOM     32  C13 UNK     1      65.245  18.759  24.889  1.00  0.00     0.139 C 
ATOM     33  O5  UNK     1      65.339  19.781  24.224  1.00  0.00    -0.650 OA
BRANCH  32  34
ATOM     34  O4  UNK     1      66.325  18.040  25.293  1.00  0.00    -0.776 OA
ATOM     35  H17 UNK     1      67.167  18.447  24.996  1.00  0.00     0.167 HD
ENDBRANCH  32  34
ENDBRANCH  31  32
ENDBRANCH  30  31
ENDBRANCH  29  30
BRANCH  29  36
ATOM     36  C6  UNK     1      61.138  16.829  24.771  1.00  0.00     0.163 C 
ATOM     37  O3  UNK     1      60.989  15.844  25.483  1.00  0.00    -0.648 OA
BRANCH  36  38
ATOM     38  O1  UNK     1      61.087  16.773  23.415  1.00  0.00    -0.775 OA
ATOM     39  H15 UNK     1      60.932  15.859  23.093  1.00  0.00     0.167 HD
ENDBRANCH  36  38
ENDBRANCH  29  36
ENDBRANCH  27  29
ENDBRANCH   1  25
TORSDOF 11
