MODEL 1
REMARK VINA RESULT:      -2.4      0.000      0.000
REMARK  11 active torsions:
REMARK  status: ('A' for Active; 'I' for Inactive)
REMARK    1  A    between atoms: O1_1  and  C6_19 
REMARK    2  A    between atoms: O4_4  and  C13_26 
REMARK    3  A    between atoms: N1_7  and  C1_14 
REMARK       I    between atoms: N1_7  and  C4_17 
REMARK    4  A    between atoms: N2_8  and  C7_20 
REMARK    5  A    between atoms: N2_8  and  C8_21 
REMARK       I    between atoms: N7_13  and  C19_32 
REMARK    6  A    between atoms: C1_14  and  C2_15 
REMARK    7  A    between atoms: C1_14  and  C6_19 
REMARK    8  A    between atoms: C2_15  and  C3_16 
REMARK    9  A    between atoms: C3_16  and  C13_26 
REMARK   10  A    between atoms: C4_17  and  C5_18 
REMARK   11  A    between atoms: C8_21  and  C14_27 
ROOT
ATOM      1  C5  UNK     1      37.726  45.854  32.765  1.00  0.00     0.032 A 
ATOM      2  C7  UNK     1      37.176  43.341  31.684  1.00  0.00     0.028 A 
ATOM      3  C9  UNK     1      37.764  45.665  31.384  1.00  0.00     0.019 A 
ATOM      4  C10 UNK     1      37.413  44.786  33.606  1.00  0.00     0.019 A 
ATOM      5  C11 UNK     1      37.489  44.409  30.843  1.00  0.00     0.030 A 
ATOM      6  C12 UNK     1      37.138  43.530  33.066  1.00  0.00     0.030 A 
ENDROOT
BRANCH   2   7
ATOM      7  N2  UNK     1      36.899  42.070  31.139  1.00  0.00    -0.384 N 
ATOM      8  H11 UNK     1      37.487  41.301  31.441  1.00  0.00     0.160 HD
BRANCH   7   9
ATOM      9  C8  UNK     1      35.840  41.840  30.205  1.00  0.00     0.180 C 
BRANCH   9  10
ATOM     10  C14 UNK     1      34.507  41.894  30.897  1.00  0.00     0.070 A 
ATOM     11  N3  UNK     1      33.408  41.994  30.126  1.00  0.00    -0.241 NA
ATOM     12  C15 UNK     1      32.239  42.038  30.792  1.00  0.00     0.174 A 
ATOM     13  C17 UNK     1      32.142  41.986  32.170  1.00  0.00     0.202 A 
ATOM     14  C18 UNK     1      31.013  42.147  29.993  1.00  0.00     0.292 A 
ATOM     15  N4  UNK     1      33.253  41.885  32.930  1.00  0.00    -0.237 NA
ATOM     16  N6  UNK     1      30.915  42.034  32.851  1.00  0.00    -0.043 NA
ATOM     17  C16 UNK     1      34.431  41.840  32.272  1.00  0.00     0.147 A 
ATOM     18  C19 UNK     1      29.823  42.132  32.142  1.00  0.00     0.703 A 
ATOM     19  N5  UNK     1      29.854  42.187  30.751  1.00  0.00    -0.152 N 
ATOM     20  N7  UNK     1      28.579  42.185  32.712  1.00  0.00    -0.233 N 
ATOM     21  H16 UNK     1      28.969  42.262  30.258  1.00  0.00     0.187 HD
ATOM     22  H18 UNK     1      28.460  42.151  33.719  1.00  0.00     0.174 HD
ATOM     23  H19 UNK     1      27.741  42.261  32.146  1.00  0.00     0.174 HD
ATOM     24  O6  UNK     1      31.059  42.196  28.771  1.00  0.00    -0.265 OA
ENDBRANCH   9  10
ENDBRANCH   7   9
ENDBRANCH   2   7
BRANCH   1  25
ATOM     25  C4  UNK     1      38.017  47.192  33.341  1.00  0.00     0.252 C 
ATOM     26  O2  UNK     1      38.375  47.276  34.513  1.00  0.00    -0.268 OA
ATOM     27  N1  UNK     1      37.879  48.270  32.477  1.00  0.00    -0.343 N 
ATOM     28  H6  UNK     1      37.658  48.115  31.499  1.00  0.00     0.163 HD
BRANCH  27  29
ATOM     29  C1  UNK     1      38.149  49.626  32.880  1.00  0.00     0.183 C 
BRANCH  29  30
ATOM     30  C2  UNK     1      38.440  50.550  31.691  1.00  0.00     0.046 C 
BRANCH  30  31
ATOM     31  C3  UNK     1      38.259  49.928  30.301  1.00  0.00     0.112 C 
BRANCH  31  32
ATOM     32  C13 UNK     1      36.850  49.447  30.028  1.00  0.00     0.139 C 
ATOM     33  O5  UNK     1      36.551  48.366  29.539  1.00  0.00    -0.650 OA
BRANCH  32  34
ATOM     34  O4  UNK     1      35.927  50.388  30.357  1.00  0.00    -0.776 OA
ATOM     35  H17 UNK     1      36.304  51.294  30.333  1.00  0.00     0.167 HD
ENDBRANCH  32  34
ENDBRANCH  31  32
ENDBRANCH  30  31
ENDBRANCH  29  30
BRANCH  29  36
ATOM     36  C6  UNK     1      36.992  50.088  33.743  1.00  0.00     0.163 C 
ATOM     37  O3  UNK     1      37.054  50.965  34.595  1.00  0.00    -0.648 OA
BRANCH  36  38
ATOM     38  O1  UNK     1      35.841  49.435  33.439  1.00  0.00    -0.775 OA
ATOM     39  H15 UNK     1      35.643  48.723  34.085  1.00  0.00     0.167 HD
ENDBRANCH  36  38
ENDBRANCH  29  36
ENDBRANCH  27  29
ENDBRANCH   1  25
TORSDOF 11
ENDMDL
MODEL 2
REMARK VINA RESULT:       0.3      3.712      6.878
REMARK  11 active torsions:
REMARK  status: ('A' for Active; 'I' for Inactive)
REMARK    1  A    between atoms: O1_1  and  C6_19 
REMARK    2  A    between atoms: O4_4  and  C13_26 
REMARK    3  A    between atoms: N1_7  and  C1_14 
REMARK       I    between atoms: N1_7  and  C4_17 
REMARK    4  A    between atoms: N2_8  and  C7_20 
REMARK    5  A    between atoms: N2_8  and  C8_21 
REMARK       I    between atoms: N7_13  and  C19_32 
REMARK    6  A    between atoms: C1_14  and  C2_15 
REMARK    7  A    between atoms: C1_14  and  C6_19 
REMARK    8  A    between atoms: C2_15  and  C3_16 
REMARK    9  A    between atoms: C3_16  and  C13_26 
REMARK   10  A    between atoms: C4_17  and  C5_18 
REMARK   11  A    between atoms: C8_21  and  C14_27 
ROOT
ATOM      1  C5  UNK     1      37.165  46.465  31.556  1.00  0.00     0.032 A 
ATOM      2  C7  UNK     1      37.874  48.480  29.761  1.00  0.00     0.028 A 
ATOM      3  C9  UNK     1      37.401  46.156  30.217  1.00  0.00     0.019 A 
ATOM      4  C10 UNK     1      37.283  47.783  31.998  1.00  0.00     0.019 A 
ATOM      5  C11 UNK     1      37.756  47.163  29.319  1.00  0.00     0.030 A 
ATOM      6  C12 UNK     1      37.638  48.791  31.101  1.00  0.00     0.030 A 
ENDROOT
BRANCH   2   7
ATOM      7  N2  UNK     1      38.231  49.500  28.855  1.00  0.00    -0.384 N 
ATOM      8  H11 UNK     1      39.064  49.351  28.297  1.00  0.00     0.160 HD
BRANCH   7   9
ATOM      9  C8  UNK     1      37.471  50.702  28.700  1.00  0.00     0.180 C 
BRANCH   9  10
ATOM     10  C14 UNK     1      35.998  50.398  28.700  1.00  0.00     0.070 A 
ATOM     11  N3  UNK     1      35.630  49.103  28.700  1.00  0.00    -0.241 NA
ATOM     12  C15 UNK     1      34.301  48.882  28.701  1.00  0.00     0.174 A 
ATOM     13  C17 UNK     1      33.359  49.893  28.701  1.00  0.00     0.202 A 
ATOM     14  C18 UNK     1      33.852  47.486  28.702  1.00  0.00     0.292 A 
ATOM     15  N4  UNK     1      33.744  51.187  28.701  1.00  0.00    -0.237 NA
ATOM     16  N6  UNK     1      31.977  49.646  28.700  1.00  0.00    -0.043 NA
ATOM     17  C16 UNK     1      35.074  51.420  28.700  1.00  0.00     0.147 A 
ATOM     18  C19 UNK     1      31.574  48.405  28.700  1.00  0.00     0.703 A 
ATOM     19  N5  UNK     1      32.474  47.343  28.702  1.00  0.00    -0.152 N 
ATOM     20  N7  UNK     1      30.248  48.062  28.700  1.00  0.00    -0.233 N 
ATOM     21  H16 UNK     1      32.097  46.399  28.702  1.00  0.00     0.187 HD
ATOM     22  H18 UNK     1      29.522  48.770  28.699  1.00  0.00     0.174 HD
ATOM     23  H19 UNK     1      29.953  47.092  28.700  1.00  0.00     0.174 HD
ATOM     24  O6  UNK     1      34.657  46.563  28.702  1.00  0.00    -0.265 OA
ENDBRANCH   9  10
ENDBRANCH   7   9
ENDBRANCH   2   7
BRANCH   1  25
ATOM     25  C4  UNK     1      36.789  45.392  32.512  1.00  0.00     0.252 C 
ATOM     26  O2  UNK     1      37.439  45.254  33.545  1.00  0.00    -0.268 OA
ATOM     27  N1  UNK     1      35.688  44.623  32.162  1.00  0.00    -0.343 N 
ATOM     28  H6  UNK     1      35.151  44.849  31.331  1.00  0.00     0.163 HD
BRANCH  27  29
ATOM     29  C1  UNK     1      35.186  43.562  32.997  1.00  0.00     0.183 C 
BRANCH  29  30
ATOM     30  C2  UNK     1      34.386  44.081  34.197  1.00  0.00     0.046 C 
BRANCH  30  31
ATOM     31  C3  UNK     1      33.923  45.541  34.112  1.00  0.00     0.112 C 
BRANCH  31  32
ATOM     32  C13 UNK     1      33.011  45.823  32.938  1.00  0.00     0.139 C 
ATOM     33  O5  UNK     1      31.930  45.290  32.734  1.00  0.00    -0.650 OA
BRANCH  32  34
ATOM     34  O4  UNK     1      33.557  46.732  32.088  1.00  0.00    -0.776 OA
ATOM     35  H17 UNK     1      32.903  47.058  31.432  1.00  0.00     0.167 HD
ENDBRANCH  32  34
ENDBRANCH  31  32
ENDBRANCH  30  31
ENDBRANCH  29  30
BRANCH  29  36
ATOM     36  C6  UNK     1      34.410  42.609  32.110  1.00  0.00     0.163 C 
ATOM     37  O3  UNK     1      34.884  41.959  31.187  1.00  0.00    -0.648 OA
BRANCH  36  38
ATOM     38  O1  UNK     1      33.106  42.519  32.481  1.00  0.00    -0.775 OA
ATOM     39  H15 UNK     1      32.646  41.783  32.023  1.00  0.00     0.167 HD
ENDBRANCH  36  38
ENDBRANCH  29  36
ENDBRANCH  27  29
ENDBRANCH   1  25
TORSDOF 11
ENDMDL
